Version 4
SHEET 1 2472 1840
WIRE -1360 144 -1360 128
WIRE -992 144 -992 128
WIRE -1280 304 -1312 304
WIRE -1264 304 -1280 304
WIRE -912 304 -944 304
WIRE -896 304 -912 304
WIRE -1360 320 -1360 224
WIRE -1264 320 -1264 304
WIRE -992 320 -992 224
WIRE -896 320 -896 304
WIRE -1312 336 -1312 304
WIRE -944 336 -944 304
WIRE -1312 400 -1312 384
WIRE -1264 400 -1312 400
WIRE -944 400 -944 384
WIRE -896 400 -944 400
WIRE -1264 416 -1264 400
WIRE -896 416 -896 400
WIRE -1360 496 -1360 400
WIRE -992 496 -992 400
WIRE -1392 544 -1424 544
WIRE -1024 544 -1056 544
WIRE -1744 640 -1760 640
WIRE -1648 640 -1664 640
WIRE -1760 656 -1760 640
WIRE -1760 688 -1760 656
WIRE -1728 688 -1760 688
WIRE -1664 688 -1664 640
WIRE -1664 688 -1680 688
WIRE -1744 736 -1856 736
WIRE -1424 736 -1424 608
WIRE -1424 736 -1664 736
WIRE -1056 736 -1056 608
WIRE -1056 736 -1424 736
WIRE -208 736 -1056 736
WIRE -1856 784 -1856 736
WIRE -1344 832 -1344 816
WIRE -1040 832 -1040 816
WIRE -688 832 -688 816
WIRE -1856 912 -1856 864
WIRE -128 944 -160 944
WIRE -112 944 -128 944
WIRE -960 960 -992 960
WIRE -944 960 -960 960
WIRE -608 960 -640 960
WIRE -592 960 -608 960
WIRE -208 960 -208 736
WIRE -112 960 -112 944
WIRE -1280 976 -1296 976
WIRE -1248 976 -1280 976
WIRE -1040 976 -1040 912
WIRE -944 976 -944 960
WIRE -688 976 -688 912
WIRE -592 976 -592 960
WIRE -160 976 -160 944
WIRE -1344 992 -1344 912
WIRE -1248 992 -1248 976
WIRE -992 992 -992 960
WIRE -640 992 -640 960
WIRE -1296 1008 -1296 976
WIRE -160 1040 -160 1024
WIRE -112 1040 -160 1040
WIRE -992 1056 -992 1040
WIRE -944 1056 -992 1056
WIRE -640 1056 -640 1040
WIRE -592 1056 -640 1056
WIRE -112 1056 -112 1040
WIRE -1296 1072 -1296 1056
WIRE -1248 1072 -1296 1072
WIRE -944 1072 -944 1056
WIRE -592 1072 -592 1056
WIRE -1248 1088 -1248 1072
WIRE -1344 1152 -1344 1072
WIRE -1040 1152 -1040 1056
WIRE -688 1152 -688 1056
WIRE -1376 1200 -1408 1200
WIRE -1072 1200 -1104 1200
WIRE -720 1200 -752 1200
WIRE -1728 1248 -1744 1248
WIRE -1632 1248 -1648 1248
WIRE -1744 1264 -1744 1248
WIRE -1744 1296 -1744 1264
WIRE -1712 1296 -1744 1296
WIRE -1648 1296 -1648 1248
WIRE -1648 1296 -1664 1296
WIRE -1728 1344 -1840 1344
WIRE -1408 1344 -1408 1264
WIRE -1408 1344 -1648 1344
WIRE -1104 1344 -1104 1264
WIRE -1104 1344 -1408 1344
WIRE -752 1344 -752 1264
WIRE -752 1344 -1104 1344
WIRE -208 1344 -208 1040
WIRE -208 1344 -752 1344
WIRE -1840 1392 -1840 1344
WIRE -1840 1520 -1840 1472
FLAG -1360 128 0
FLAG -1344 816 0
FLAG -1264 416 0
FLAG -1248 1088 0
FLAG -1392 544 a
FLAG -1376 1200 b
FLAG -1280 304 a_sw
FLAG -1280 976 b_sw
FLAG -1856 912 0
FLAG -1840 1520 0
FLAG -1648 640 0
FLAG -1760 656 S1
FLAG -1632 1248 0
FLAG -1744 1264 S3
FLAG -112 1056 0
FLAG -128 944 S2
FLAG -992 128 0
FLAG -896 416 0
FLAG -1024 544 w1
FLAG -912 304 w1_sw
FLAG -1040 816 0
FLAG -944 1072 0
FLAG -1072 1200 w2
FLAG -960 960 w2_sw
FLAG -688 816 0
FLAG -592 1072 0
FLAG -720 1200 c
FLAG -608 960 c_sw
SYMBOL voltage -1360 240 R180
WINDOW 3 24 96 Invisible 2
WINDOW 123 0 0 Left 2
WINDOW 39 0 0 Left 2
SYMATTR Value PWL file=a.csv
SYMATTR InstName V1
SYMBOL voltage -1344 928 R180
WINDOW 3 24 96 Invisible 2
WINDOW 123 0 0 Left 2
WINDOW 39 0 0 Left 2
SYMATTR Value PWL file=b.csv
SYMATTR InstName V3
SYMBOL sw -1360 416 R180
SYMATTR InstName S_a
SYMATTR Value MYSW
SYMBOL voltage -1264 304 R0
WINDOW 3 24 96 Invisible 2
WINDOW 123 0 0 Left 2
WINDOW 39 0 0 Left 2
SYMATTR Value PWL file=a_sw.csv
SYMATTR InstName V2
SYMBOL sw -1344 1088 R180
SYMATTR InstName S_b
SYMATTR Value MYSW
SYMBOL voltage -1248 976 R0
WINDOW 3 24 96 Invisible 2
WINDOW 123 0 0 Left 2
WINDOW 39 0 0 Left 2
SYMATTR Value PWL file=b_sw.csv
SYMATTR InstName V4
SYMBOL VTEAM_knowm -1472 496 R0
WINDOW 39 1806 202 Bottom 2
SYMATTR SpiceLine w_init={w_a} R_on={R_on} R_off={R_off}
SYMATTR InstName Xa
SYMBOL VTEAM_knowm -1456 1152 R0
WINDOW 39 1791 -430 Bottom 2
SYMATTR SpiceLine w_init={w_b} R_on={R_on} R_off={R_off}
SYMATTR InstName Xb
SYMBOL res -1872 768 R0
SYMATTR InstName R3
SYMATTR Value {R_g}
SYMBOL res -1856 1376 R0
SYMATTR InstName R4
SYMATTR Value {R_g}
SYMBOL sw -1648 736 R90
SYMATTR InstName Sw1
SYMATTR Value MYSW
SYMBOL voltage -1760 640 R270
WINDOW 3 24 96 Invisible 2
WINDOW 123 0 0 Left 2
WINDOW 39 0 0 Left 2
SYMATTR Value PWL file=S1.csv
SYMATTR InstName V11
SYMBOL sw -1632 1344 R90
SYMATTR InstName Sw3
SYMATTR Value MYSW
SYMBOL voltage -1744 1248 R270
WINDOW 3 24 96 Invisible 2
WINDOW 123 0 0 Left 2
WINDOW 39 0 0 Left 2
SYMATTR Value PWL file=S3.csv
SYMATTR InstName V13
SYMBOL sw -208 1056 R180
SYMATTR InstName Sw2
SYMATTR Value MYSW
SYMBOL voltage -112 944 R0
WINDOW 3 24 96 Invisible 2
WINDOW 123 0 0 Left 2
WINDOW 39 0 0 Left 2
SYMATTR Value PWL file=S2.csv
SYMATTR InstName V12
SYMBOL voltage -992 240 R180
WINDOW 3 24 96 Invisible 2
WINDOW 123 0 0 Left 2
WINDOW 39 0 0 Left 2
SYMATTR Value PWL file=w1.csv
SYMATTR InstName V7
SYMBOL sw -992 416 R180
SYMATTR InstName S_w1
SYMATTR Value MYSW
SYMBOL voltage -896 304 R0
WINDOW 3 24 96 Invisible 2
WINDOW 123 0 0 Left 2
WINDOW 39 0 0 Left 2
SYMATTR Value PWL file=w1_sw.csv
SYMATTR InstName V8
SYMBOL VTEAM_knowm -1104 496 R0
WINDOW 39 1449 272 Bottom 2
SYMATTR SpiceLine w_init={w_w1} R_on={R_on} R_off={R_off}
SYMATTR InstName Xw1
SYMBOL voltage -1040 928 R180
WINDOW 3 24 96 Invisible 2
WINDOW 123 0 0 Left 2
WINDOW 39 0 0 Left 2
SYMATTR Value PWL file=w2.csv
SYMATTR InstName V9
SYMBOL sw -1040 1072 R180
SYMATTR InstName S_w2
SYMATTR Value MYSW
SYMBOL voltage -944 960 R0
WINDOW 3 24 96 Invisible 2
WINDOW 123 0 0 Left 2
WINDOW 39 0 0 Left 2
SYMATTR Value PWL file=w2_sw.csv
SYMATTR InstName V10
SYMBOL VTEAM_knowm -1152 1152 R0
WINDOW 39 1497 -361 Bottom 2
SYMATTR SpiceLine w_init={w_w2} R_on={R_on} R_off={R_off}
SYMATTR InstName Xw2
SYMBOL voltage -688 928 R180
WINDOW 3 24 96 Invisible 2
WINDOW 123 0 0 Left 2
WINDOW 39 0 0 Left 2
SYMATTR Value PWL file=c.csv
SYMATTR InstName V5
SYMBOL sw -688 1072 R180
SYMATTR InstName S_c
SYMATTR Value MYSW
SYMBOL voltage -592 960 R0
WINDOW 3 24 96 Invisible 2
WINDOW 123 0 0 Left 2
WINDOW 39 0 0 Left 2
SYMATTR Value PWL file=c_sw.csv
SYMATTR InstName V6
SYMBOL VTEAM_knowm -800 1152 R0
WINDOW 39 1133 -407 Bottom 2
SYMATTR SpiceLine w_init={w_c} R_on={R_on} R_off={R_off}
SYMATTR InstName Xc
TEXT 80 328 Left 2 !.model MYSW SW(Ron=1n Roff=1000meg Vt=.5)
TEXT 80 352 Left 2 !.param R_g=40k
TEXT 80 960 Left 2 !.tran {tstop}
TEXT 80 496 Left 2 !.param w_a=0n
TEXT 80 520 Left 2 !.param w_b=0n
TEXT 80 544 Left 2 !.param w_c=0n
TEXT 80 568 Left 2 !.param w_w1=0n
TEXT 80 592 Left 2 !.param w_w2=0n
TEXT 80 400 Left 2 !.param R_on=10k
TEXT 80 424 Left 2 !.param R_off=1000k
TEXT 80 936 Left 2 !.meas sum AVG -V(n001)*I(V1) -V(n009)*I(V3) -V(n008)*I(V5) -V(n002)*I(V7) -V(n007)*I(V9)
TEXT 88 888 Left 2 !.param tstop=600u
